*Heading
** Job name: Smooth Model name: Smooth
** Generated by: Abaqus/CAE 6.14-6
*Preprint, echo=NO, model=NO, history=NO, contact=NO
**
** PARTS
**
*Part, name=Specimen
*Node
1,-37.2728233,-0.00206456473,1.60000002
2,-37.2728233,-0.00206456473,0.
3,-27.5,-5.,0.
4,-27.5,-5.,1.60000002
5,-37.2728233,2.5,0.
6,-27.5,2.5,0.
7,-27.5,2.5,1.60000002
8,-37.2728233,2.5,1.60000002
9,-9.,-5.,1.60000002
10,-9.,-5.,0.
11,-9.,2.5,0.
12,-9.,2.5,1.60000002
13,-37.5,0.,1.55980051
14,-37.5,0.,0.
15,-37.5,2.5,1.55980051
16,-37.5,2.5,0.
17,-40.,0.,0.
18,-40.,0.,1.35000002
19,-40.,2.5,1.35000002
20,-40.,2.5,0.
** ... 21944 like lines cut
*Element, type=C3D8
1,234,2465,5990,1535,1,21,605,112
2,2465,2466,5991,5990,21,22,606,605
3,2466,2467,5992,5991,22,23,607,606
4,2467,2468,5993,5992,23,24,608,607
5,2468,2469,5994,5993,24,25,609,608
6,2469,2470,5995,5994,25,26,610,609
7,2470,2471,5996,5995,26,27,611,610
8,2471,2472,5997,5996,27,28,612,611
9,2472,2473,5998,5997,28,29,613,612
10,2473,2474,5999,5998,29,30,614,613
11,2474,2475,6000,5999,30,31,615,614
12,2475,2476,6001,6000,31,32,616,615
13,2476,2477,6002,6001,32,33,617,616
14,2477,2478,6003,6002,33,34,618,617
15,2478,2479,6004,6003,34,35,619,618
16,2479,250,2000,6004,35,2,36,619
17,1535,5990,6005,1536,112,605,620,111
18,5990,5991,6006,6005,605,606,621,620
19,5991,5992,6007,6006,606,607,622,621
20,5992,5993,6008,6007,607,608,623,622
** ... 19180 like lines cut
*Nset, nset=All, generate
1,21964,1
*Elset, elset=All, generate
1,19200,1
** Section: Specimen
*Solid Section, elset=All, material=Steel
,
*End Part
**  
**
** ASSEMBLY
**
*Assembly, name=Assembly
**  
*Instance, name=Specimen, part=Specimen
1.35,40.,2.50000000000001
1.35,40.,2.50000000000001,0.77264972044796,39.422649720448,3.07735027955205,119.999999109416
*End Instance
**  
*Nset, nset=Trim, instance=Specimen
13,14,15,16,17,18,19,20,425,426,427,428,429,430,431,432
433,434,435,436,437,438,439,440,441,442,443,444,445,446,447,448
449,450,451,452,453,454,455,456,457,458,459,460,461,462,463,464
465,466,467,468,469,470,471,472,473,474,475,476,477,478,479,480
481,482,483,484,485,486,487,488,489,490,491,492,493,494,495,496
497,498,499,500,501,502,503,504,505,506,507,508,509,510,511,512
513,514,515,516,517,518,519,520,521,522,523,524,525,526,527,528
529,530,531,532,533,534,535,536,537,538,539,540,541,542,543,544
545,546,547,548,549,550,551,552,553,554,555,556,557,558,559,560
561,562,563,564,565,566,567,568,569,570,571,572,573,574,575,576
577,578,579,580,581,582,583,584,585,586,587,588,589,590,591,592
593,594,595,596,597,598,599,600,601,602,603,604,4640,4641,4642,4643
4644,4645,4646,4647,4648,4649,4650,4651,4652,4653,4654,4655,4656,4657,4658,4659
4660,4661,4662,4663,4664,4665,4666,4667,4668,4669,4670,4671,4672,4673,4674,4675
4676,4677,4678,4679,4680,4681,4682,4683,4684,4685,4686,4687,4688,4689,4690,4691
4692,4693,4694,4695,4696,4697,4698,4699,4700,4701,4702,4703,4704,4705,4706,4707
4708,4709,4710,4711,4712,4713,4714,4715,4716,4717,4718,4719,4720,4721,4722,4723
4724,4725,4726,4727,4728,4729,4730,4731,4732,4733,4734,4735,4736,4737,4738,4739
4740,4741,4742,4743,4744,4745,4746,4747,4748,4749,4750,4751,4752,4753,4754,4755
4756,4757,4758,4759,4760,4761,4762,4763,4764,4765,4766,4767,4768,4769,4770,4771
** ... 288 like lines cut
*Elset, elset=Trim, instance=Specimen, generate
15105,19200,1
*Nset, nset=Ysymm, instance=Specimen
17,18,19,20,485,486,487,488,489,490,491,492,493,494,495,496
497,498,499,500,501,502,503,504,505,506,507,508,509,510,511,512
513,514,515,516,517,518,519,520,521,522,523,524,525,526,527,528
529,530,531,532,533,534,535,536,537,538,539,540,541,542,543,544
4865,4866,4867,4868,4869,4870,4871,4872,4873,4874,4875,4876,4877,4878,4879,4880
4881,4882,4883,4884,4885,4886,4887,4888,4889,4890,4891,4892,4893,4894,4895,4896
4897,4898,4899,4900,4901,4902,4903,4904,4905,4906,4907,4908,4909,4910,4911,4912
4913,4914,4915,4916,4917,4918,4919,4920,4921,4922,4923,4924,4925,4926,4927,4928
4929,4930,4931,4932,4933,4934,4935,4936,4937,4938,4939,4940,4941,4942,4943,4944
4945,4946,4947,4948,4949,4950,4951,4952,4953,4954,4955,4956,4957,4958,4959,4960
4961,4962,4963,4964,4965,4966,4967,4968,4969,4970,4971,4972,4973,4974,4975,4976
4977,4978,4979,4980,4981,4982,4983,4984,4985,4986,4987,4988,4989,4990,4991,4992
4993,4994,4995,4996,4997,4998,4999,5000,5001,5002,5003,5004,5005,5006,5007,5008
5009,5010,5011,5012,5013,5014,5015,5016,5017,5018,5019,5020,5021,5022,5023,5024
5025,5026,5027,5028,5029,5030,5031,5032,5033,5034,5035,5036,5037,5038,5039,5040
5041,5042,5043,5044,5045,5046,5047,5048,5049,5050,5051,5052,5053,5054,5055,5056
5057,5058,5059,5060,5061,5062,5063,5064,5065,5066,5067,5068,5069,5070,5071,5072
5073,5074,5075,5076,5077,5078,5079,5080,5081,5082,5083,5084,5085,5086,5087,5088
5089,
*Elset, elset=Ysymm, instance=Specimen, generate
18945,19200,1
*Nset, nset=Zsymm, instance=Specimen
5,6,7,8,11,12,15,16,19,20,113,114,115,116,117,118
119,120,121,122,123,124,125,126,127,128,129,130,131,132,133,134
135,136,137,138,139,140,141,142,143,144,145,146,147,148,149,150
151,152,153,154,155,156,157,158,159,160,161,162,163,164,165,166
167,168,169,170,171,172,173,174,175,176,177,178,179,180,181,182
183,184,185,186,187,188,189,190,191,192,193,194,195,196,197,198
199,200,201,202,203,204,330,331,332,333,334,335,336,337,338,339
340,341,342,343,344,345,346,347,348,349,350,351,352,353,354,355
356,357,358,359,360,361,362,363,364,365,366,367,368,369,370,371
372,373,374,375,376,377,378,379,380,381,382,383,384,385,386,387
388,389,390,391,392,393,394,440,441,442,443,444,445,446,447,448
449,450,451,452,453,454,515,516,517,518,519,520,521,522,523,524
525,526,527,528,529,545,546,547,548,549,550,551,552,553,554,555
556,557,558,559,575,576,577,578,579,580,581,582,583,584,585,586
587,588,589,1070,1071,1072,1073,1074,1075,1076,1077,1078,1079,1080,1081,1082
1083,1084,1085,1086,1087,1088,1089,1090,1091,1092,1093,1094,1095,1096,1097,1098
1099,1100,1101,1102,1103,1104,1105,1106,1107,1108,1109,1110,1111,1112,1113,1114
1115,1116,1117,1118,1119,1120,1121,1122,1123,1124,1125,1126,1127,1128,1129,1130
1131,1132,1133,1134,1135,1136,1137,1138,1139,1140,1141,1142,1143,1144,1145,1146
1147,1148,1149,1150,1151,1152,1153,1154,1155,1156,1157,1158,1159,1160,1161,1162
** ... 61 like lines cut
*Elset, elset=Zsymm, instance=Specimen
7681,7682,7683,7684,7685,7686,7687,7688,7689,7690,7691,7692,7693,7694,7695,7696
7697,7698,7699,7700,7701,7702,7703,7704,7705,7706,7707,7708,7709,7710,7711,7712
7713,7714,7715,7716,7717,7718,7719,7720,7721,7722,7723,7724,7725,7726,7727,7728
7729,7730,7731,7732,7733,7734,7735,7736,7737,7738,7739,7740,7741,7742,7743,7744
7745,7746,7747,7748,7749,7750,7751,7752,7753,7754,7755,7756,7757,7758,7759,7760
7761,7762,7763,7764,7765,7766,7767,7768,7769,7770,7771,7772,7773,7774,7775,7776
7777,7778,7779,7780,7781,7782,7783,7784,7785,7786,7787,7788,7789,7790,7791,7792
7793,7794,7795,7796,7797,7798,7799,7800,7801,7802,7803,7804,7805,7806,7807,7808
7809,7810,7811,7812,7813,7814,7815,7816,7817,7818,7819,7820,7821,7822,7823,7824
7825,7826,7827,7828,7829,7830,7831,7832,7833,7834,7835,7836,7837,7838,7839,7840
7841,7842,7843,7844,7845,7846,7847,7848,7849,7850,7851,7852,7853,7854,7855,7856
7857,7858,7859,7860,7861,7862,7863,7864,7865,7866,7867,7868,7869,7870,7871,7872
7873,7874,7875,7876,7877,7878,7879,7880,7881,7882,7883,7884,7885,7886,7887,7888
7889,7890,7891,7892,7893,7894,7895,7896,7897,7898,7899,7900,7901,7902,7903,7904
7905,7906,7907,7908,7909,7910,7911,7912,7913,7914,7915,7916,7917,7918,7919,7920
7921,7922,7923,7924,7925,7926,7927,7928,7929,7930,7931,7932,7933,7934,7935,7936
7937,7938,7939,7940,7941,7942,7943,7944,7945,7946,7947,7948,7949,7950,7951,7952
7953,7954,7955,7956,7957,7958,7959,7960,7961,7962,7963,7964,7965,7966,7967,7968
7969,7970,7971,7972,7973,7974,7975,7976,7977,7978,7979,7980,7981,7982,7983,7984
7985,7986,7987,7988,7989,7990,7991,7992,7993,7994,7995,7996,7997,7998,7999,8000
** ... 55 like lines cut
*Elset, elset=_ActiveZone_S4, internal, instance=Specimen, generate
15120,19200,16
*Surface, type=ELEMENT, name=ActiveZone
_ActiveZone_S4, S4
*Elset, elset=_Load_S6, internal, instance=Specimen, generate
8193,14823,26
*Surface, type=ELEMENT, name=Load
_Load_S6, S6
*End Assembly
** 
** MATERIALS
** 
*Material, name=Steel
*Elastic
209000.,0.3
*Plastic
0.01,0.
1.,6.54e-15
2.,1.67e-13
3.,1.12e-12
4.,4.29e-12
5.,1.22e-11
6.,2.86e-11
7.,5.88e-11
8.,1.1e-10
9.,1.91e-10
10.,3.12e-10
11.,4.88e-10
12.,7.33e-10
13.,1.07e-9
14.,1.51e-9
15.,2.08e-9
16.,2.81e-9
17.,3.74e-9
18.,4.88e-9
19.,6.29e-9
20.,8.e-9
21.,1.e-8
22.,1.25e-8
23.,1.54e-8
24.,1.88e-8
25.,2.27e-8
26.,2.73e-8
27.,3.26e-8
28.,3.86e-8
29.,4.55e-8
30.,5.33e-8
31.,6.22e-8
32.,7.21e-8
33.,8.33e-8
34.,9.58e-8
35.,1.1e-7
36.,1.25e-7
37.,1.42e-7
38.,1.61e-7
39.,1.82e-7
40.,2.05e-7
41.,2.3e-7
** ... 29 like lines cut
71.,3.e-6
72.,3.21e-6
73.,3.42e-6
74.,3.64e-6
75.,3.88e-6
76.,4.13e-6
77.,4.39e-6
78.,4.66e-6
79.,4.95e-6
80.,5.25e-6
81.,5.56e-6
82.,5.89e-6
83.,6.23e-6
84.,6.59e-6
85.,6.97e-6
86.,7.36e-6
87.,7.77e-6
88.,8.2e-6
89.,8.64e-6
90.,9.11e-6
91.,9.59e-6
** ... 909 like lines cut
** 
** BOUNDARY CONDITIONS
** 
** Name: Ysymm Type: Symmetry/Antisymmetry/Encastre
*Boundary
Ysymm, YSYMM
** Name: Zsymm Type: Symmetry/Antisymmetry/Encastre
*Boundary
Zsymm, ZSYMM
**
**-----------------------------------------------------------
**
*Step, name=Step-1, nlgeom=NO
*Static
1.,1.,1e-05,1.
*Dsload
Load,TRVEC,1.40625, 0.,1.,0.
*EL PRINT, POSITION=AVERAGED AT NODES, elset=Trim, FREQUENCY=99999
EE
*EL PRINT, POSITION=AVERAGED AT NODES, elset=Trim, FREQUENCY=99999
PE
*Output, field, variable=PRESELECT
*End Step
**
**-----------------------------------------------------------
**
*Step, name=Step-2, nlgeom=NO
*Static
1.,1.,1e-05,1.
*Dsload
Load,TRVEC,2.8125, 0.,1.,0.
*EL PRINT, POSITION=AVERAGED AT NODES, elset=Trim, FREQUENCY=99999
EE
*EL PRINT, POSITION=AVERAGED AT NODES, elset=Trim, FREQUENCY=99999
PE
*Output, field, variable=PRESELECT
*End Step
**
**-----------------------------------------------------------
**
*Step, name=Step-3, nlgeom=NO
*Static
1.,1.,1e-05,1.
*Dsload
Load,TRVEC,4.21875, 0.,1.,0.
*EL PRINT, POSITION=AVERAGED AT NODES, elset=Trim, FREQUENCY=99999
EE
*EL PRINT, POSITION=AVERAGED AT NODES, elset=Trim, FREQUENCY=99999
PE
*Output, field, variable=PRESELECT
*End Step
**
**-----------------------------------------------------------
**
*Step, name=Step-4, nlgeom=NO
*Static
1.,1.,1e-05,1.
*Dsload
Load,TRVEC,5.625, 0.,1.,0.
*EL PRINT, POSITION=AVERAGED AT NODES, elset=Trim, FREQUENCY=99999
EE
*EL PRINT, POSITION=AVERAGED AT NODES, elset=Trim, FREQUENCY=99999
PE
*Output, field, variable=PRESELECT
*End Step
**
**-----------------------------------------------------------
**
*Step, name=Step-5, nlgeom=NO
*Static
1.,1.,1e-05,1.
*Dsload
Load,TRVEC,7.03125, 0.,1.,0.
*EL PRINT, POSITION=AVERAGED AT NODES, elset=Trim, FREQUENCY=99999
EE
*EL PRINT, POSITION=AVERAGED AT NODES, elset=Trim, FREQUENCY=99999
PE
*Output, field, variable=PRESELECT
*End Step
**
**-----------------------------------------------------------
**
*Step, name=Step-6, nlgeom=NO
*Static
1.,1.,1e-05,1.
*Dsload
Load,TRVEC,8.4375, 0.,1.,0.
*EL PRINT, POSITION=AVERAGED AT NODES, elset=Trim, FREQUENCY=99999
EE
*EL PRINT, POSITION=AVERAGED AT NODES, elset=Trim, FREQUENCY=99999
PE
*Output, field, variable=PRESELECT
*End Step
**
**-----------------------------------------------------------
**
*Step, name=Step-7, nlgeom=NO
*Static
1.,1.,1e-05,1.
*Dsload
Load,TRVEC,9.84375, 0.,1.,0.
*EL PRINT, POSITION=AVERAGED AT NODES, elset=Trim, FREQUENCY=99999
EE
*EL PRINT, POSITION=AVERAGED AT NODES, elset=Trim, FREQUENCY=99999
PE
*Output, field, variable=PRESELECT
*End Step
**
**-----------------------------------------------------------
**
*Step, name=Step-8, nlgeom=NO
*Static
1.,1.,1e-05,1.
*Dsload
Load,TRVEC,11.25, 0.,1.,0.
*EL PRINT, POSITION=AVERAGED AT NODES, elset=Trim, FREQUENCY=99999
EE
*EL PRINT, POSITION=AVERAGED AT NODES, elset=Trim, FREQUENCY=99999
PE
*Output, field, variable=PRESELECT
*End Step
**
**-----------------------------------------------------------
**
*Step, name=Step-9, nlgeom=NO
*Static
1.,1.,1e-05,1.
*Dsload
Load,TRVEC,12.65625, 0.,1.,0.
*EL PRINT, POSITION=AVERAGED AT NODES, elset=Trim, FREQUENCY=99999
EE
*EL PRINT, POSITION=AVERAGED AT NODES, elset=Trim, FREQUENCY=99999
PE
*Output, field, variable=PRESELECT
*End Step
**
**-----------------------------------------------------------
**
*Step, name=Step-10, nlgeom=NO
*Static
1.,1.,1e-05,1.
*Dsload
Load,TRVEC,14.0625, 0.,1.,0.
*EL PRINT, POSITION=AVERAGED AT NODES, elset=Trim, FREQUENCY=99999
EE
*EL PRINT, POSITION=AVERAGED AT NODES, elset=Trim, FREQUENCY=99999
PE
*Output, field, variable=PRESELECT
*End Step
**
**-----------------------------------------------------------
**
*Step, name=Step-11, nlgeom=NO
*Static
1.,1.,1e-05,1.
*Dsload
Load,TRVEC,15.468750000000002, 0.,1.,0.
*EL PRINT, POSITION=AVERAGED AT NODES, elset=Trim, FREQUENCY=99999
EE
*EL PRINT, POSITION=AVERAGED AT NODES, elset=Trim, FREQUENCY=99999
PE
*Output, field, variable=PRESELECT
*End Step
**
**-----------------------------------------------------------
**
*Step, name=Step-12, nlgeom=NO
*Static
1.,1.,1e-05,1.
*Dsload
Load,TRVEC,16.875, 0.,1.,0.
*EL PRINT, POSITION=AVERAGED AT NODES, elset=Trim, FREQUENCY=99999
EE
*EL PRINT, POSITION=AVERAGED AT NODES, elset=Trim, FREQUENCY=99999
PE
*Output, field, variable=PRESELECT
*End Step
**
**-----------------------------------------------------------
**
*Step, name=Step-13, nlgeom=NO
*Static
1.,1.,1e-05,1.
*Dsload
Load,TRVEC,18.28125, 0.,1.,0.
*EL PRINT, POSITION=AVERAGED AT NODES, elset=Trim, FREQUENCY=99999
EE
*EL PRINT, POSITION=AVERAGED AT NODES, elset=Trim, FREQUENCY=99999
PE
*Output, field, variable=PRESELECT
*End Step
**
**-----------------------------------------------------------
**
*Step, name=Step-14, nlgeom=NO
*Static
1.,1.,1e-05,1.
*Dsload
Load,TRVEC,19.6875, 0.,1.,0.
*EL PRINT, POSITION=AVERAGED AT NODES, elset=Trim, FREQUENCY=99999
EE
*EL PRINT, POSITION=AVERAGED AT NODES, elset=Trim, FREQUENCY=99999
PE
*Output, field, variable=PRESELECT
*End Step
**
**-----------------------------------------------------------
**
*Step, name=Step-15, nlgeom=NO
*Static
1.,1.,1e-05,1.
*Dsload
Load,TRVEC,21.09375, 0.,1.,0.
*EL PRINT, POSITION=AVERAGED AT NODES, elset=Trim, FREQUENCY=99999
EE
*EL PRINT, POSITION=AVERAGED AT NODES, elset=Trim, FREQUENCY=99999
PE
*Output, field, variable=PRESELECT
*End Step
**
**-----------------------------------------------------------
**
*Step, name=Step-16, nlgeom=NO
*Static
1.,1.,1e-05,1.
*Dsload
Load,TRVEC,22.5, 0.,1.,0.
*EL PRINT, POSITION=AVERAGED AT NODES, elset=Trim, FREQUENCY=99999
EE
*EL PRINT, POSITION=AVERAGED AT NODES, elset=Trim, FREQUENCY=99999
PE
*Output, field, variable=PRESELECT
*End Step
**
**-----------------------------------------------------------
**
*Step, name=Step-17, nlgeom=NO
*Static
1.,1.,1e-05,1.
*Dsload
Load,TRVEC,23.90625, 0.,1.,0.
*EL PRINT, POSITION=AVERAGED AT NODES, elset=Trim, FREQUENCY=99999
EE
*EL PRINT, POSITION=AVERAGED AT NODES, elset=Trim, FREQUENCY=99999
PE
*Output, field, variable=PRESELECT
*End Step
**
**-----------------------------------------------------------
**
*Step, name=Step-18, nlgeom=NO
*Static
1.,1.,1e-05,1.
*Dsload
Load,TRVEC,25.3125, 0.,1.,0.
*EL PRINT, POSITION=AVERAGED AT NODES, elset=Trim, FREQUENCY=99999
EE
*EL PRINT, POSITION=AVERAGED AT NODES, elset=Trim, FREQUENCY=99999
PE
*Output, field, variable=PRESELECT
*End Step
**
**-----------------------------------------------------------
**
*Step, name=Step-19, nlgeom=NO
*Static
1.,1.,1e-05,1.
*Dsload
Load,TRVEC,26.71875, 0.,1.,0.
*EL PRINT, POSITION=AVERAGED AT NODES, elset=Trim, FREQUENCY=99999
EE
*EL PRINT, POSITION=AVERAGED AT NODES, elset=Trim, FREQUENCY=99999
PE
*Output, field, variable=PRESELECT
*End Step
**
**-----------------------------------------------------------
**
*Step, name=Step-20, nlgeom=NO
*Static
1.,1.,1e-05,1.
*Dsload
Load,TRVEC,28.125, 0.,1.,0.
*EL PRINT, POSITION=AVERAGED AT NODES, elset=Trim, FREQUENCY=99999
EE
*EL PRINT, POSITION=AVERAGED AT NODES, elset=Trim, FREQUENCY=99999
PE
*Output, field, variable=PRESELECT
*End Step
**
**-----------------------------------------------------------
**
*Step, name=Step-21, nlgeom=NO
*Static
1.,1.,1e-05,1.
*Dsload
Load,TRVEC,29.53125, 0.,1.,0.
*EL PRINT, POSITION=AVERAGED AT NODES, elset=Trim, FREQUENCY=99999
EE
*EL PRINT, POSITION=AVERAGED AT NODES, elset=Trim, FREQUENCY=99999
PE
*Output, field, variable=PRESELECT
*End Step
**
**-----------------------------------------------------------
**
*Step, name=Step-22, nlgeom=NO
*Static
1.,1.,1e-05,1.
*Dsload
Load,TRVEC,30.937500000000004, 0.,1.,0.
*EL PRINT, POSITION=AVERAGED AT NODES, elset=Trim, FREQUENCY=99999
EE
*EL PRINT, POSITION=AVERAGED AT NODES, elset=Trim, FREQUENCY=99999
PE
*Output, field, variable=PRESELECT
*End Step
**
**-----------------------------------------------------------
**
*Step, name=Step-23, nlgeom=NO
*Static
1.,1.,1e-05,1.
*Dsload
Load,TRVEC,32.34374999999999, 0.,1.,0.
*EL PRINT, POSITION=AVERAGED AT NODES, elset=Trim, FREQUENCY=99999
EE
*EL PRINT, POSITION=AVERAGED AT NODES, elset=Trim, FREQUENCY=99999
PE
*Output, field, variable=PRESELECT
*End Step
**
**-----------------------------------------------------------
**
*Step, name=Step-24, nlgeom=NO
*Static
1.,1.,1e-05,1.
*Dsload
Load,TRVEC,33.75, 0.,1.,0.
*EL PRINT, POSITION=AVERAGED AT NODES, elset=Trim, FREQUENCY=99999
EE
*EL PRINT, POSITION=AVERAGED AT NODES, elset=Trim, FREQUENCY=99999
PE
*Output, field, variable=PRESELECT
*End Step
**
**-----------------------------------------------------------
**
*Step, name=Step-25, nlgeom=NO
*Static
1.,1.,1e-05,1.
*Dsload
Load,TRVEC,35.15625, 0.,1.,0.
*EL PRINT, POSITION=AVERAGED AT NODES, elset=Trim, FREQUENCY=99999
EE
*EL PRINT, POSITION=AVERAGED AT NODES, elset=Trim, FREQUENCY=99999
PE
*Output, field, variable=PRESELECT
*End Step
**
**-----------------------------------------------------------
**
*Step, name=Step-26, nlgeom=NO
*Static
1.,1.,1e-05,1.
*Dsload
Load,TRVEC,36.5625, 0.,1.,0.
*EL PRINT, POSITION=AVERAGED AT NODES, elset=Trim, FREQUENCY=99999
EE
*EL PRINT, POSITION=AVERAGED AT NODES, elset=Trim, FREQUENCY=99999
PE
*Output, field, variable=PRESELECT
*End Step
**
**-----------------------------------------------------------
**
*Step, name=Step-27, nlgeom=NO
*Static
1.,1.,1e-05,1.
*Dsload
Load,TRVEC,37.96875, 0.,1.,0.
*EL PRINT, POSITION=AVERAGED AT NODES, elset=Trim, FREQUENCY=99999
EE
*EL PRINT, POSITION=AVERAGED AT NODES, elset=Trim, FREQUENCY=99999
PE
*Output, field, variable=PRESELECT
*End Step
**
**-----------------------------------------------------------
**
*Step, name=Step-28, nlgeom=NO
*Static
1.,1.,1e-05,1.
*Dsload
Load,TRVEC,39.375, 0.,1.,0.
*EL PRINT, POSITION=AVERAGED AT NODES, elset=Trim, FREQUENCY=99999
EE
*EL PRINT, POSITION=AVERAGED AT NODES, elset=Trim, FREQUENCY=99999
PE
*Output, field, variable=PRESELECT
*End Step
**
**-----------------------------------------------------------
**
*Step, name=Step-29, nlgeom=NO
*Static
1.,1.,1e-05,1.
*Dsload
Load,TRVEC,40.78125, 0.,1.,0.
*EL PRINT, POSITION=AVERAGED AT NODES, elset=Trim, FREQUENCY=99999
EE
*EL PRINT, POSITION=AVERAGED AT NODES, elset=Trim, FREQUENCY=99999
PE
*Output, field, variable=PRESELECT
*End Step
**
**-----------------------------------------------------------
**
*Step, name=Step-30, nlgeom=NO
*Static
1.,1.,1e-05,1.
*Dsload
Load,TRVEC,42.1875, 0.,1.,0.
*EL PRINT, POSITION=AVERAGED AT NODES, elset=Trim, FREQUENCY=99999
EE
*EL PRINT, POSITION=AVERAGED AT NODES, elset=Trim, FREQUENCY=99999
PE
*Output, field, variable=PRESELECT
*End Step
**
**-----------------------------------------------------------
**
*Step, name=Step-31, nlgeom=NO
*Static
1.,1.,1e-05,1.
*Dsload
Load,TRVEC,43.59375, 0.,1.,0.
*EL PRINT, POSITION=AVERAGED AT NODES, elset=Trim, FREQUENCY=99999
EE
*EL PRINT, POSITION=AVERAGED AT NODES, elset=Trim, FREQUENCY=99999
PE
*Output, field, variable=PRESELECT
*End Step
**
**-----------------------------------------------------------
**
*Step, name=Step-32, nlgeom=NO
*Static
1.,1.,1e-05,1.
*Dsload
Load,TRVEC,45., 0.,1.,0.
*EL PRINT, POSITION=AVERAGED AT NODES, elset=Trim, FREQUENCY=99999
EE
*EL PRINT, POSITION=AVERAGED AT NODES, elset=Trim, FREQUENCY=99999
PE
*Output, field, variable=PRESELECT
*End Step
**
**-----------------------------------------------------------
**
*Step, name=Step-33, nlgeom=NO
*Static
1.,1.,1e-05,1.
*Dsload
Load,TRVEC,46.40625, 0.,1.,0.
*EL PRINT, POSITION=AVERAGED AT NODES, elset=Trim, FREQUENCY=99999
EE
*EL PRINT, POSITION=AVERAGED AT NODES, elset=Trim, FREQUENCY=99999
PE
*Output, field, variable=PRESELECT
*End Step
**
**-----------------------------------------------------------
**
*Step, name=Step-34, nlgeom=NO
*Static
1.,1.,1e-05,1.
*Dsload
Load,TRVEC,47.8125, 0.,1.,0.
*EL PRINT, POSITION=AVERAGED AT NODES, elset=Trim, FREQUENCY=99999
EE
*EL PRINT, POSITION=AVERAGED AT NODES, elset=Trim, FREQUENCY=99999
PE
*Output, field, variable=PRESELECT
*End Step
**
**-----------------------------------------------------------
**
*Step, name=Step-35, nlgeom=NO
*Static
1.,1.,1e-05,1.
*Dsload
Load,TRVEC,49.21875, 0.,1.,0.
*EL PRINT, POSITION=AVERAGED AT NODES, elset=Trim, FREQUENCY=99999
EE
*EL PRINT, POSITION=AVERAGED AT NODES, elset=Trim, FREQUENCY=99999
PE
*Output, field, variable=PRESELECT
*End Step
**
**-----------------------------------------------------------
**
*Step, name=Step-36, nlgeom=NO
*Static
1.,1.,1e-05,1.
*Dsload
Load,TRVEC,50.625, 0.,1.,0.
*EL PRINT, POSITION=AVERAGED AT NODES, elset=Trim, FREQUENCY=99999
EE
*EL PRINT, POSITION=AVERAGED AT NODES, elset=Trim, FREQUENCY=99999
PE
*Output, field, variable=PRESELECT
*End Step
**
**-----------------------------------------------------------
**
*Step, name=Step-37, nlgeom=NO
*Static
1.,1.,1e-05,1.
*Dsload
Load,TRVEC,52.03125, 0.,1.,0.
*EL PRINT, POSITION=AVERAGED AT NODES, elset=Trim, FREQUENCY=99999
EE
*EL PRINT, POSITION=AVERAGED AT NODES, elset=Trim, FREQUENCY=99999
PE
*Output, field, variable=PRESELECT
*End Step
**
**-----------------------------------------------------------
**
*Step, name=Step-38, nlgeom=NO
*Static
1.,1.,1e-05,1.
*Dsload
Load,TRVEC,53.4375, 0.,1.,0.
*EL PRINT, POSITION=AVERAGED AT NODES, elset=Trim, FREQUENCY=99999
EE
*EL PRINT, POSITION=AVERAGED AT NODES, elset=Trim, FREQUENCY=99999
PE
*Output, field, variable=PRESELECT
*End Step
**
**-----------------------------------------------------------
**
*Step, name=Step-39, nlgeom=NO
*Static
1.,1.,1e-05,1.
*Dsload
Load,TRVEC,54.84375, 0.,1.,0.
*EL PRINT, POSITION=AVERAGED AT NODES, elset=Trim, FREQUENCY=99999
EE
*EL PRINT, POSITION=AVERAGED AT NODES, elset=Trim, FREQUENCY=99999
PE
*Output, field, variable=PRESELECT
*End Step
**
**-----------------------------------------------------------
**
*Step, name=Step-40, nlgeom=NO
*Static
1.,1.,1e-05,1.
*Dsload
Load,TRVEC,56.25, 0.,1.,0.
*EL PRINT, POSITION=AVERAGED AT NODES, elset=Trim, FREQUENCY=99999
EE
*EL PRINT, POSITION=AVERAGED AT NODES, elset=Trim, FREQUENCY=99999
PE
*Output, field, variable=PRESELECT
*End Step